9

F 0.0336398565 0.0724938326 0.0038294063
C -0.0198492339 1.3795318235 0.0106873090
N -1.1919235711 1.8932368224 0.0281503422
O -1.2171711394 3.2875268795 0.0355191575
C -0.0575671639 3.9626258536 0.0242434208
N 1.1321499985 3.5015067163 0.0069010647
C 1.2813192573 2.1103737444 -0.0019956243
O 2.3390278616 1.5370489094 -0.0181747214
H -0.2635778655 5.0307256283 0.0322439853