17

C -0.1031275643 1.5583534725 0.0623730036
C 0.0401280852 0.0345667842 0.0244571323
C 0.7736766876 -0.4904865404 -1.2247691131
C 2.2485066057 -0.0716102415 -1.2916458938
C 0.6584526960 -2.0074580511 -1.2984367004
F -0.6242636988 -2.4098674702 -1.3198700353
F 1.2402740214 -2.4981202262 -2.4065521983
F 1.2437679610 -2.6058122654 -0.2452842702
H 0.8661394864 2.0629541020 0.1163840383
H -0.6245848781 1.9303311475 -0.8267013551
H -0.6813532463 1.8666277424 0.9383695333
H 0.5713992062 -0.3139353634 0.9179656159
H -0.9545607528 -0.4212218204 0.0587010512
H 0.2546361872 -0.1226083813 -2.1191460140
H 2.3372785151 1.0160114875 -1.3310501041
H 2.7920141480 -0.4275476881 -0.4110430144
H 2.7329127605 -0.4824641781 -2.1803835459