9

F 0.0294398657 0.1054728264 0.1694126569
C -0.0349339419 1.4043949602 0.0525722489
N -1.1632111278 1.9851251558 -0.0080036095
C -1.1047099645 3.3609447418 -0.1304707326
N -0.0611481821 4.1109922219 -0.1893947824
O 1.1676663324 3.4524305345 -0.1210174617
C 1.2816350221 2.0899109147 0.0014803288
O 2.3525891161 1.5641858285 0.0570771338
H -2.0505477001 3.8880380263 -0.1848637620