10

F 0.0362107281 0.0939631986 0.0030734097
C -0.0207776838 1.4053721873 0.0108376059
N -1.1958869304 1.9359932814 0.0296514446
C -1.2782307526 3.3140938018 0.0376494600
O -2.2843999029 3.9734737649 0.0563167077
N -0.0035198814 3.9691041445 0.0244975423
C 1.1502701915 3.2873303246 0.0051419789
N 1.2098685128 1.9867396528 -0.0028305444
H -0.0231249309 4.9799518509 0.0305199206
H 2.0703269996 3.8665203533 -0.0040014354