13

C 0.0126957745 1.5016817895 0.0187853600
C 0.0101435640 -0.0013358247 -0.0097991438
C -0.1600252287 -0.7246376127 -1.1904663295
N -0.1634332956 -2.0621287369 -1.2237824354
C 0.0041249825 -2.6598182621 -0.0708024733
F 0.0062568082 -3.9874486885 -0.0657816452
C 0.1775833404 -1.9734614400 1.1323182980
N 0.1796204259 -0.6475847868 1.1560850031
H 0.9597734233 1.8761388924 0.4197190698
H -0.1323658451 1.9209038439 -0.9797593861
H -0.7824868170 1.8742999031 0.6720550063
H -0.2981513189 -0.2159087616 -2.1407989416
H 0.3133517764 -2.5110777557 2.0661663478