11

O 0.0857081968 1.3596775046 0.1326328597
C 0.0658537357 0.0062234095 0.0379856914
C 0.0858493945 -0.7059001292 -1.1591056818
N 0.0646652239 -2.0390814495 -1.1947972129
C 0.0231659547 -2.6364783503 -0.0196069051
F 0.0037021647 -3.9573676356 -0.0458170128
N 0.0009303080 -2.0859944176 1.1819505364
C 0.0223486602 -0.7554309634 1.2073741970
H 0.1154376727 1.7470929828 -0.7491944993
H 0.1198718628 -0.1893988955 -2.1181374930
H 0.0048029461 -0.2670010957 2.1778901606