17

C -0.0233331627 1.5474194441 0.0185698368
C -0.0156020739 0.0081631977 0.0333959361
C 0.7467741766 -0.5137075779 1.2646309732
C -1.4551393791 -0.5372185954 0.0211148954
C 0.7014319476 -0.4859136045 -1.2272273145
F 1.9714525377 -0.0473335401 -1.2857665953
F 0.7473072810 -1.8287936128 -1.2842018223
F 0.0896441074 -0.0663073735 -2.3490070203
H 0.9937219031 1.9480459502 0.0109915097
H -0.5494392800 1.9321750688 -0.8589681820
H -0.5307983528 1.9219380514 0.9121887738
H 0.2509929036 -0.1708348528 2.1773203549
H 0.7726325688 -1.6064060349 1.2802665737
H 1.7763470136 -0.1465785759 1.2774488774
H -2.0037059729 -0.1866620145 -0.8570482342
H -1.4642120558 -1.6303254070 0.0163437563
H -1.9863443922 -0.1954710630 0.9141121413