10

O -0.0284315750 1.4350210719 -0.0164168212
C 0.0195094802 0.0359621498 -0.0208118815
C 0.6610511363 -0.5074695857 -1.2349930878
N 1.1682305873 -0.8920764833 -2.1979237192
C 0.7361963534 -0.4957333180 1.2370781701
F 0.0608188100 -0.1496417843 2.3299143405
F 0.8450266941 -1.8233669003 1.2030506197
F 1.9651541670 0.0334860749 1.3178345687
H 0.8774508543 1.7698669192 -0.0283023430
H -1.0145240775 -0.3203086341 0.0226593038