10

F 0.0554609011 0.0784278338 0.0026344960
C -0.0396225311 1.3912966399 0.0111742411
C -1.2480706055 2.0026732307 0.0308519732
C -1.2666133902 3.4447852321 0.0382615149
O -2.2114909225 4.2016144754 0.0565235958
N 0.0611833242 3.9534988960 0.0236924140
N 1.2099022327 3.2870415576 0.0044162506
N 1.1810268104 2.0091075840 -0.0023712629
H -2.1783558779 1.4512909820 0.0408019102
H 0.1670979089 4.9613102283 0.0282334371