10

F 0.0214970105 0.1116333033 0.0031781893
C -0.0668792275 1.4168090915 0.0113896575
N -1.2273202235 1.9504774172 0.0301791543
C -1.2543467068 3.3423203885 0.0379787047
N -2.2568594615 4.1150785762 0.0559004452
N 0.0321781533 3.9294822104 0.0234452613
N 1.1828448090 3.2930174886 0.0042324973
N 1.1848635089 2.0131703092 -0.0026341507
H -3.1150121938 3.5666817815 0.0647735536
H 0.0981884713 4.9393036036 0.0279406473